**
** Heading +++++++++++++++++++++++++++++++++++++++++++++++++
**
*Heading
Hash: oA3sxO6v, Date: 05/13/2025, Unit system: MM_TON_S_C
**
** Nodes +++++++++++++++++++++++++++++++++++++++++++++++++++
**
*Node
1, -2.62000000E+001, 5.79483884E+000, -4.82760553E+000
2, -2.62000000E+001, 1.06948388E+001, -4.82760553E+000
3, -1.52000000E+001, 5.79483884E+000, -4.82760553E+000
4, -1.52000000E+001, 1.06948388E+001, -4.82760553E+000
5, -2.62000000E+001, 8.24483884E+000, -4.82760553E+000
6, -2.62000000E+001, 7.01983884E+000, -4.82760553E+000
7, -2.62000000E+001, 9.46983884E+000, -4.82760553E+000
8, -2.62000000E+001, 8.24483884E+000, -2.37760553E+000
9, -2.62000000E+001, 9.46983884E+000, -3.60260553E+000
10, -2.62000000E+001, 7.01983884E+000, -3.60260553E+000
11, -2.07000000E+001, 5.79483884E+000, -4.82760553E+000
12, -2.07000000E+001, 1.06948388E+001, -4.82760553E+000
13, -1.52000000E+001, 8.24483884E+000, -4.82760553E+000
14, -1.52000000E+001, 7.01983884E+000, -4.82760553E+000
15, -1.52000000E+001, 9.46983884E+000, -4.82760553E+000
16, -1.52000000E+001, 8.24483884E+000, -2.37760553E+000
17, -1.52000000E+001, 9.46983884E+000, -3.60260553E+000
18, -1.52000000E+001, 7.01983884E+000, -3.60260553E+000
19, -2.62000000E+001, 8.24483884E+000, -3.60260553E+000
20, -2.07000000E+001, 8.24483884E+000, -4.82760553E+000
21, -2.07000000E+001, 8.24483884E+000, -2.37760553E+000
22, -1.52000000E+001, 8.24483884E+000, -3.60260553E+000
**
** Elements ++++++++++++++++++++++++++++++++++++++++++++++++
**
*Element, Type=C3D15, Elset=Solid_part-2
1, 2, 8, 5, 4, 16, 13, 9, 19, 7, 17, 22, 15, 12, 21, 20
2, 1, 5, 8, 3, 13, 16, 6, 19, 10, 14, 22, 18, 11, 20, 21
**
** Node sets +++++++++++++++++++++++++++++++++++++++++++++++
**
*Nset, Nset=Internal_Selection-1_Fixed-1
1, 2, 5, 6, 7, 8, 9, 10, 19
*Nset, Nset=Internal-1_Internal_Selection-1_Surface_Traction-1
3, 4, 13, 14, 15, 16, 17, 18, 22
**
** Element sets ++++++++++++++++++++++++++++++++++++++++++++
**
*Elset, Elset=Internal_Selection-1_Solid_Section-1
Solid_part-2
*Elset, Elset=Internal-1_Internal_Selection-1_Surface_Traction-1_S2
1, 2
**
** Surfaces ++++++++++++++++++++++++++++++++++++++++++++++++
**
*Surface, Name=Internal_Selection-1_Surface_Traction-1, Type=Element
Internal-1_Internal_Selection-1_Surface_Traction-1_S2, S2
**
** Physical constants ++++++++++++++++++++++++++++++++++++++
**
**
** Coordinate systems ++++++++++++++++++++++++++++++++++++++
**
**
** Materials +++++++++++++++++++++++++++++++++++++++++++++++
**
*Material, Name=ABS
*Density
1.02E-09
*Elastic
2000, 0.394
*Expansion, Zero=20
7.4E-05
*Conductivity
0.2256
*Specific heat
1386000000
**
** Sections ++++++++++++++++++++++++++++++++++++++++++++++++
**
*Solid section, Elset=Internal_Selection-1_Solid_Section-1, Material=ABS
**
** Pre-tension sections ++++++++++++++++++++++++++++++++++++
**
**
** Constraints +++++++++++++++++++++++++++++++++++++++++++++
**
**
** Surface interactions ++++++++++++++++++++++++++++++++++++
**
**
** Contact pairs +++++++++++++++++++++++++++++++++++++++++++
**
**
** Amplitudes ++++++++++++++++++++++++++++++++++++++++++++++
**
**
** Initial conditions ++++++++++++++++++++++++++++++++++++++
**
**
** Steps +++++++++++++++++++++++++++++++++++++++++++++++++++
**
**
** Step-1 ++++++++++++++++++++++++++++++++++++++++++++++++++
**
*Step
*Static, Solver=Pardiso
**
** Controls ++++++++++++++++++++++++++++++++++++++++++++++++
**
**
** Output frequency ++++++++++++++++++++++++++++++++++++++++
**
*Output, Frequency=1
**
** Boundary conditions +++++++++++++++++++++++++++++++++++++
**
*Boundary, op=New
** Name: Fixed-1
*Boundary
Internal_Selection-1_Fixed-1, 1, 6, 0
**
** Loads +++++++++++++++++++++++++++++++++++++++++++++++++++
**
*Cload, op=New
*Dload, op=New
** Name: Surface_Traction-1
*Cload
17, 1, 16.6666666666667
22, 1, 33.3333333333333
15, 1, 16.6666666666667
14, 1, 16.6666666666667
18, 1, 16.6666666666667
**
** Defined fields ++++++++++++++++++++++++++++++++++++++++++
**
**
** History outputs +++++++++++++++++++++++++++++++++++++++++
**
**
** Field outputs +++++++++++++++++++++++++++++++++++++++++++
**
*Node file
RF, U
*El file
S, E, NOE
**
** End step ++++++++++++++++++++++++++++++++++++++++++++++++
**
*End step
